dss/import/hidra-caso1-modificado/Line_caso1_Med2024_30.dss
New "Line.13446853" phases=3 bus1=3814019_p.1.2.3 bus2=13446853_p.1.2.3 linecode=10kVCU16mm2 length=0.002236 units=km normamps=141 
New "Line.13555564" phases=3 bus1=13555570_p.1.2.3 bus2=13555564_p.1.2.3 linecode=10kVAAAC240mm2 length=0.050311 units=km normamps=545 
New "Line.13555570" phases=3 bus1=13555616_p.1.2.3 bus2=13555570_p.1.2.3 linecode=10kVAAAC240mm2 length=0.050833 units=km normamps=545 
New "Line.13555616" phases=3 bus1=13555627_p.1.2.3 bus2=13555616_p.1.2.3 linecode=10kVAAAC240mm2 length=0.049527 units=km normamps=545 
New "Line.13555627" phases=3 bus1=13555633_p.1.2.3 bus2=13555627_p.1.2.3 linecode=10kVAAAC240mm2 length=0.050375 units=km normamps=545 
New "Line.13555633" phases=3 bus1=13555649_p.1.2.3 bus2=13555633_p.1.2.3 linecode=10kVAAAC240mm2 length=0.052415 units=km normamps=545 
New "Line.13555649" phases=3 bus1=13555660_p.1.2.3 bus2=13555649_p.1.2.3 linecode=10kVAAAC240mm2 length=0.052649 units=km normamps=545 
New "Line.13555660" phases=3 bus1=13555666_p.1.2.3 bus2=13555660_p.1.2.3 linecode=10kVAAAC240mm2 length=0.05169 units=km normamps=545 
New "Line.13555666" phases=3 bus1=13602024_p.1.2.3 bus2=13555666_p.1.2.3 linecode=10kVAAAC240mm2 length=0.052023 units=km normamps=545 
New "Line.13602024" phases=3 bus1=13602065_p.1.2.3 bus2=13602024_p.1.2.3 linecode=10kVAAAC240mm2 length=0.050145 units=km normamps=545 
New "Line.13602065" phases=3 bus1=13602070_p.1.2.3 bus2=13602065_p.1.2.3 linecode=10kVAAAC240mm2 length=0.050125 units=km normamps=545 
New "Line.13602070" phases=3 bus1=13981264_p.1.2.3 bus2=13602070_p.1.2.3 linecode=10kVAAAC240mm2 length=0.051765 units=km normamps=545 
New "Line.13602075" phases=3 bus1=3845020_p.1.2.3 bus2=13602075_p.1.2.3 linecode=10kVAAAC70mm2 length=0.020232 units=km normamps=235 
New "Line.13912616" phases=3 bus1=3806737_p.1.2.3 bus2=13912616_p.1.2.3 linecode=10kVN2XSY50mm2 length=0.036412 units=km normamps=277 
New "Line.13912631" phases=3 bus1=2913152_p.1.2.3 bus2=13912631_p.1.2.3 linecode=10kVAAAC240mm2 length=0.017703 units=km normamps=545 
New "Line.13981264" phases=3 bus1=13981269_p.1.2.3 bus2=13981264_p.1.2.3 linecode=10kVAAAC240mm2 length=0.052765 units=km normamps=545 
New "Line.13981269" phases=3 bus1=13981274_p.1.2.3 bus2=13981269_p.1.2.3 linecode=10kVAAAC240mm2 length=0.051351 units=km normamps=545 
New "Line.13981274" phases=3 bus1=13981279_p.1.2.3 bus2=13981274_p.1.2.3 linecode=10kVAAAC240mm2 length=0.051288 units=km normamps=545 
New "Line.13981279" phases=3 bus1=13981284_p.1.2.3 bus2=13981279_p.1.2.3 linecode=10kVAAAC240mm2 length=0.053174 units=km normamps=545 
New "Line.13981284" phases=3 bus1=13981290_p.1.2.3 bus2=13981284_p.1.2.3 linecode=10kVAAAC240mm2 length=0.054168 units=km normamps=545 
New "Line.13981290" phases=3 bus1=13981299_p.1.2.3 bus2=13981290_p.1.2.3 linecode=10kVAAAC240mm2 length=0.041678 units=km normamps=545 
New "Line.13981299" phases=3 bus1=13981304_p.1.2.3 bus2=13981299_p.1.2.3 linecode=10kVAAAC240mm2 length=0.045856 units=km normamps=545 
New "Line.13981304" phases=3 bus1=13981309_p.1.2.3 bus2=13981304_p.1.2.3 linecode=10kVAAAC240mm2 length=0.044672 units=km normamps=545 
New "Line.13981309" phases=3 bus1=13981314_p.1.2.3 bus2=13981309_p.1.2.3 linecode=10kVAAAC240mm2 length=0.04701 units=km normamps=545 
New "Line.13981314" phases=3 bus1=13981329_p.1.2.3 bus2=13981314_p.1.2.3 linecode=10kVAAAC240mm2 length=0.047418 units=km normamps=545 
New "Line.13981324" phases=3 bus1=2915583_p.1.2.3 bus2=13981324_p.1.2.3 linecode=10kVAAAC240mm2 length=0.056813 units=km normamps=545 
New "Line.13981329" phases=3 bus1=13981334_p.1.2.3 bus2=13981329_p.1.2.3 linecode=10kVAAAC240mm2 length=0.045596 units=km normamps=545 
New "Line.13981334" phases=3 bus1=13981339_p.1.2.3 bus2=13981334_p.1.2.3 linecode=10kVAAAC240mm2 length=0.048025 units=km normamps=545 
New "Line.13981339" phases=3 bus1=13981344_p.1.2.3 bus2=13981339_p.1.2.3 linecode=10kVAAAC240mm2 length=0.049719 units=km normamps=545 
New "Line.13981344" phases=3 bus1=13981349_p.1.2.3 bus2=13981344_p.1.2.3 linecode=10kVAAAC240mm2 length=0.039901 units=km normamps=545 
New "Line.13981349" phases=3 bus1=13981354_p.1.2.3 bus2=13981349_p.1.2.3 linecode=10kVAAAC240mm2 length=0.038645 units=km normamps=545 
New "Line.13981354" phases=3 bus1=13981324_p.1.2.3 bus2=13981354_p.1.2.3 linecode=10kVAAAC240mm2 length=0.046001 units=km normamps=545 
New "Line.14016067" phases=3 bus1=3837992_p.1.2.3 bus2=14016067_p.1.2.3 linecode=10kVAAAC50mm2 length=0.016 units=km normamps=195 
New "Line.14016068" phases=3 bus1=14016067_p.1.2.3 bus2=14016068_p.1.2.3 linecode=10kVAAAC50mm2 length=0.019313 units=km normamps=195 
New "Line.14016081" phases=3 bus1=14016068_p.1.2.3 bus2=14016081_p.1.2.3 linecode=10kVAAAC50mm2 length=0.050999 units=km normamps=195 
New "Line.14016088" phases=3 bus1=14016081_p.1.2.3 bus2=14016088_p.1.2.3 linecode=10kVAAAC50mm2 length=0.04 units=km normamps=195 
New "Line.14016095" phases=3 bus1=14016088_p.1.2.3 bus2=14016095_p.1.2.3 linecode=10kVAAAC50mm2 length=0.006203 units=km normamps=195 
New "Line.14016207" phases=3 bus1=3810137_p.1.2.3 bus2=14016207_p.1.2.3 linecode=10kVN2XSY35mm2 length=0.010666 units=km normamps=229 
New "Line.14016214" phases=3 bus1=14016207_p.1.2.3 bus2=14016214_p.1.2.3 linecode=10kVN2XSY35mm2 length=0.0228 units=km normamps=229 
New "Line.14016221" phases=3 bus1=14016214_p.1.2.3 bus2=14016221_p.1.2.3 linecode=10kVN2XSY35mm2 length=0.009722 units=km normamps=229 
New "Line.14016237" phases=3 bus1=14016221_p.1.2.3 bus2=14016237_p.1.2.3 linecode=10kVAAAC50mm2 length=0.056899 units=km normamps=195 
New "Line.14016246" phases=3 bus1=14016237_p.1.2.3 bus2=14016246_p.1.2.3 linecode=10kVAAAC50mm2 length=0.055399 units=km normamps=195 
New "Line.14016254" phases=3 bus1=14016246_p.1.2.3 bus2=14016254_p.1.2.3 linecode=10kVN2XSY35mm2 length=0.01203 units=km normamps=229 
New "Line.14016261" phases=3 bus1=14016254_p.1.2.3 bus2=14016261_p.1.2.3 linecode=10kVN2XSY35mm2 length=0.009611 units=km normamps=229 
New "Line.14070073" phases=3 bus1=13912616_p.1.2.3 bus2=14070073_p.1.2.3 linecode=10kVN2XSY50mm2 length=0.024354 units=km normamps=277 
New "Line.16144232" phases=3 bus1=3823305_p.1.2.3 bus2=16144232_p.1.2.3 linecode=10kVCU35mm2 length=0.000999 units=km normamps=229 
New "Line.16144242" phases=3 bus1=3747406_p.1.2.3 bus2=16144242_p.1.2.3 linecode=10kVAAAC35mm2 length=0.001 units=km normamps=160 
New "Line.16370734" phases=3 bus1=3844387_p.1.2.3 bus2=16370734_p.1.2.3 linecode=10kVAAAC70mm2 length=0.059528 units=km normamps=235 
New "Line.16370741" phases=3 bus1=16370734_p.1.2.3 bus2=16370741_p.1.2.3 linecode=10kVAAAC70mm2 length=0.06 units=km normamps=235 
New "Line.16370748" phases=3 bus1=16370741_p.1.2.3 bus2=16370748_p.1.2.3 linecode=10kVAAAC70mm2 length=0.059999 units=km normamps=235 
New "Line.16370756" phases=3 bus1=16370748_p.1.2.3 bus2=16370756_p.1.2.3 linecode=10kVAAAC70mm2 length=0.06 units=km normamps=235 
New "Line.16370763" phases=3 bus1=16370756_p.1.2.3 bus2=16370763_p.1.2.3 linecode=10kVAAAC70mm2 length=0.06 units=km normamps=235 
New "Line.16370770" phases=3 bus1=16370763_p.1.2.3 bus2=16370770_p.1.2.3 linecode=10kVAAAC70mm2 length=0.06 units=km normamps=235 
New "Line.16370777" phases=3 bus1=16370770_p.1.2.3 bus2=16370777_p.1.2.3 linecode=10kVAAAC70mm2 length=0.059999 units=km normamps=235 
New "Line.16370784" phases=3 bus1=16370777_p.1.2.3 bus2=16370784_p.1.2.3 linecode=10kVAAAC70mm2 length=0.059999 units=km normamps=235 
New "Line.16370792" phases=3 bus1=16370784_p.1.2.3 bus2=16370792_p.1.2.3 linecode=10kVAAAC70mm2 length=0.06 units=km normamps=235 
New "Line.16370799" phases=3 bus1=16370792_p.1.2.3 bus2=16370799_p.1.2.3 linecode=10kVAAAC70mm2 length=0.06 units=km normamps=235 
New "Line.16370837" phases=3 bus1=16370799_p.1.2.3 bus2=16370837_p.1.2.3 linecode=10kVAAAC70mm2 length=0.058743 units=km normamps=235 
New "Line.2166300" phases=3 bus1=2913320_p.1.2.3 bus2=2166300_p.1.2.3 linecode=10kVAAAC240mm2 length=0.05085 units=km normamps=545 
New "Line.2912998" phases=3 bus1=2912993_p.1.2.3 bus2=2912998_p.1.2.3 linecode=10kVN2XSY240mm2 length=0.041807 units=km normamps=760 
New "Line.2913003" phases=3 bus1=2912998_p.1.2.3 bus2=2913003_p.1.2.3 linecode=10kVN2XSY240mm2 length=0.036614 units=km normamps=760 
New "Line.2913008" phases=3 bus1=2913003_p.1.2.3 bus2=2913008_p.1.2.3 linecode=10kVN2XSY240mm2 length=0.009895 units=km normamps=760 
New "Line.2913013" phases=3 bus1=2913008_p.1.2.3 bus2=2913013_p.1.2.3 linecode=10kVN2XSY240mm2 length=0.070099 units=km normamps=760 
New "Line.2913018" phases=3 bus1=2913013_p.1.2.3 bus2=2913018_p.1.2.3 linecode=10kVN2XSY240mm2 length=0.004653 units=km normamps=760 
New "Line.2913100" phases=3 bus1=2913018_p.1.2.3 bus2=2913100_p.1.2.3 linecode=10kVAAAC240mm2 length=0.04058 units=km normamps=545 
New "Line.2913105" phases=3 bus1=2913100_p.1.2.3 bus2=2913105_p.1.2.3 linecode=10kVAAAC240mm2 length=0.042247 units=km normamps=545 
New "Line.2913110" phases=3 bus1=2913105_p.1.2.3 bus2=2913110_p.1.2.3 linecode=10kVAAAC240mm2 length=0.066117 units=km normamps=545 
New "Line.2913115" phases=3 bus1=2913110_p.1.2.3 bus2=2913115_p.1.2.3 linecode=10kVAAAC240mm2 length=0.033658 units=km normamps=545 
New "Line.2913120" phases=3 bus1=2913115_p.1.2.3 bus2=2913120_p.1.2.3 linecode=10kVAAAC240mm2 length=0.075442 units=km normamps=545 
New "Line.2913125" phases=3 bus1=2913120_p.1.2.3 bus2=2913125_p.1.2.3 linecode=10kVAAAC240mm2 length=0.063638 units=km normamps=545 
New "Line.2913130" phases=3 bus1=2913125_p.1.2.3 bus2=2913130_p.1.2.3 linecode=10kVAAAC240mm2 length=0.042732 units=km normamps=545 
New "Line.2913136" phases=3 bus1=2913130_p.1.2.3 bus2=2913136_p.1.2.3 linecode=10kVAAAC240mm2 length=0.040714 units=km normamps=545 
New "Line.2913141" phases=3 bus1=2913136_p.1.2.3 bus2=2913141_p.1.2.3 linecode=10kVAAAC240mm2 length=0.028217 units=km normamps=545 
New "Line.2913146" phases=3 bus1=2913141_p.1.2.3 bus2=2913146_p.1.2.3 linecode=10kVAAAC240mm2 length=0.034423 units=km normamps=545 
New "Line.2913152" phases=3 bus1=2913146_p.1.2.3 bus2=2913152_p.1.2.3 linecode=10kVAAAC240mm2 length=0.0069 units=km normamps=545 
New "Line.2913157" phases=3 bus1=13912631_p.1.2.3 bus2=2913157_p.1.2.3 linecode=10kVAAAC240mm2 length=0.118967 units=km normamps=545 
New "Line.2913162" phases=3 bus1=2913157_p.1.2.3 bus2=2913162_p.1.2.3 linecode=10kVAAAC240mm2 length=0.085183 units=km normamps=545 
New "Line.2913167" phases=3 bus1=2913162_p.1.2.3 bus2=2913167_p.1.2.3 linecode=10kVAAAC240mm2 length=0.07459 units=km normamps=545 
New "Line.2913172" phases=3 bus1=2913167_p.1.2.3 bus2=2913172_p.1.2.3 linecode=10kVAAAC240mm2 length=0.076708 units=km normamps=545 
New "Line.2913177" phases=3 bus1=2913172_p.1.2.3 bus2=2913177_p.1.2.3 linecode=10kVAAAC240mm2 length=0.075918 units=km normamps=545 
New "Line.2913182" phases=3 bus1=2913177_p.1.2.3 bus2=2913182_p.1.2.3 linecode=10kVAAAC240mm2 length=0.075679 units=km normamps=545 
New "Line.2913188" phases=3 bus1=2913182_p.1.2.3 bus2=2913188_p.1.2.3 linecode=10kVAAAC240mm2 length=0.074097 units=km normamps=545 
New "Line.2913193" phases=3 bus1=2913188_p.1.2.3 bus2=2913193_p.1.2.3 linecode=10kVN2XSY240mm2 length=0.020509 units=km normamps=760 
New "Line.2913225" phases=3 bus1=2913193_p.1.2.3 bus2=2913225_p.1.2.3 linecode=10kVN2XSY240mm2 length=0.069543 units=km normamps=760 
New "Line.2913230" phases=3 bus1=2913225_p.1.2.3 bus2=2913230_p.1.2.3 linecode=10kVAAAC240mm2 length=0.065012 units=km normamps=545 
New "Line.2913235" phases=3 bus1=2913230_p.1.2.3 bus2=2913235_p.1.2.3 linecode=10kVAAAC240mm2 length=0.069049 units=km normamps=545 
New "Line.2913240" phases=3 bus1=2913235_p.1.2.3 bus2=2913240_p.1.2.3 linecode=10kVN2XSY240mm2 length=0.041243 units=km normamps=760 
New "Line.2913245" phases=3 bus1=2913240_p.1.2.3 bus2=2913245_p.1.2.3 linecode=10kVAAAC240mm2 length=0.06655 units=km normamps=545 
New "Line.2913250" phases=3 bus1=2913245_p.1.2.3 bus2=2913250_p.1.2.3 linecode=10kVAAAC240mm2 length=0.071541 units=km normamps=545 
New "Line.2913255" phases=3 bus1=2913250_p.1.2.3 bus2=2913255_p.1.2.3 linecode=10kVAAAC240mm2 length=0.053399 units=km normamps=545 
New "Line.2913260" phases=3 bus1=2913255_p.1.2.3 bus2=2913260_p.1.2.3 linecode=10kVAAAC240mm2 length=0.054279 units=km normamps=545 
New "Line.2913265" phases=3 bus1=2913260_p.1.2.3 bus2=2913265_p.1.2.3 linecode=10kVN2XSY240mm2 length=0.082637 units=km normamps=760 
New "Line.2913270" phases=3 bus1=2913265_p.1.2.3 bus2=2913270_p.1.2.3 linecode=10kVAAAC240mm2 length=0.057639 units=km normamps=545 
New "Line.2913275" phases=3 bus1=2913270_p.1.2.3 bus2=2913275_p.1.2.3 linecode=10kVAAAC240mm2 length=0.05043 units=km normamps=545 
New "Line.2913280" phases=3 bus1=2913275_p.1.2.3 bus2=2913280_p.1.2.3 linecode=10kVN2XSY240mm2 length=0.029395 units=km normamps=760 
New "Line.2913285" phases=3 bus1=2913280_p.1.2.3 bus2=2913285_p.1.2.3 linecode=10kVAAAC240mm2 length=0.071162 units=km normamps=545 
New "Line.2913290" phases=3 bus1=2913285_p.1.2.3 bus2=2913290_p.1.2.3 linecode=10kVAAAC240mm2 length=0.065302 units=km normamps=545 
New "Line.2913296" phases=3 bus1=2913290_p.1.2.3 bus2=2913296_p.1.2.3 linecode=10kVAAAC240mm2 length=0.102585 units=km normamps=545 
New "Line.2913308" phases=3 bus1=2913296_p.1.2.3 bus2=2913308_p.1.2.3 linecode=10kVAAAC240mm2 length=0.050898 units=km normamps=545 
New "Line.2913314" phases=3 bus1=2913308_p.1.2.3 bus2=2913314_p.1.2.3 linecode=10kVAAAC240mm2 length=0.05166 units=km normamps=545 
New "Line.2913320" phases=3 bus1=2913314_p.1.2.3 bus2=2913320_p.1.2.3 linecode=10kVAAAC240mm2 length=0.050316 units=km normamps=545 
New "Line.2915466" phases=3 bus1=2166300_p.1.2.3 bus2=2915466_p.1.2.3 linecode=10kVAAAC240mm2 length=0.049994 units=km normamps=545 
New "Line.2915480" phases=3 bus1=2915466_p.1.2.3 bus2=2915480_p.1.2.3 linecode=10kVAAAC240mm2 length=0.050531 units=km normamps=545 
New "Line.2915486" phases=3 bus1=2915480_p.1.2.3 bus2=2915486_p.1.2.3 linecode=10kVAAAC240mm2 length=0.052196 units=km normamps=545 
New "Line.2915494" phases=3 bus1=2915486_p.1.2.3 bus2=2915494_p.1.2.3 linecode=10kVAAAC240mm2 length=0.052031 units=km normamps=545 
New "Line.2915505" phases=3 bus1=2915494_p.1.2.3 bus2=2915505_p.1.2.3 linecode=10kVAAAC240mm2 length=0.052021 units=km normamps=545 
New "Line.2915511" phases=3 bus1=2915505_p.1.2.3 bus2=2915511_p.1.2.3 linecode=10kVAAAC240mm2 length=0.051078 units=km normamps=545 
New "Line.2915533" phases=3 bus1=2915511_p.1.2.3 bus2=2915533_p.1.2.3 linecode=10kVAAAC240mm2 length=0.051087 units=km normamps=545 
New "Line.2915538" phases=3 bus1=2915533_p.1.2.3 bus2=2915538_p.1.2.3 linecode=10kVAAAC240mm2 length=0.050013 units=km normamps=545 
New "Line.2915549" phases=3 bus1=2915538_p.1.2.3 bus2=2915549_p.1.2.3 linecode=10kVAAAC240mm2 length=0.04462 units=km normamps=545 
New "Line.2915555" phases=3 bus1=2915549_p.1.2.3 bus2=2915555_p.1.2.3 linecode=10kVAAAC240mm2 length=0.049792 units=km normamps=545 
New "Line.2915571" phases=3 bus1=2915555_p.1.2.3 bus2=2915571_p.1.2.3 linecode=10kVAAAC240mm2 length=0.04932 units=km normamps=545 
New "Line.2915583" phases=3 bus1=2915571_p.1.2.3 bus2=2915583_p.1.2.3 linecode=10kVAAAC240mm2 length=0.049996 units=km normamps=545 
New "Line.2915600" phases=3 bus1=2915605_p.1.2.3 bus2=2915600_p.1.2.3 linecode=10kVAAAC240mm2 length=0.03554 units=km normamps=545 
New "Line.2915605" phases=3 bus1=2915610_p.1.2.3 bus2=2915605_p.1.2.3 linecode=10kVAAAC240mm2 length=0.034176 units=km normamps=545 
New "Line.2915610" phases=3 bus1=2915615_p.1.2.3 bus2=2915610_p.1.2.3 linecode=10kVAAAC240mm2 length=0.050516 units=km normamps=545 
New "Line.2915615" phases=3 bus1=2915620_p.1.2.3 bus2=2915615_p.1.2.3 linecode=10kVAAAC240mm2 length=0.051698 units=km normamps=545 
New "Line.2915620" phases=3 bus1=2915625_p.1.2.3 bus2=2915620_p.1.2.3 linecode=10kVAAAC240mm2 length=0.052064 units=km normamps=545 
New "Line.2915625" phases=3 bus1=13555564_p.1.2.3 bus2=2915625_p.1.2.3 linecode=10kVAAAC240mm2 length=0.023826 units=km normamps=545 
New "Line.3747361" phases=3 bus1=3820126_p.1.2.3 bus2=3747361_p.1.2.3 linecode=10kVAAAC120mm2 length=0.055603 units=km normamps=340 
New "Line.3747406" phases=3 bus1=3838228_p.1.2.3 bus2=3747406_p.1.2.3 linecode=10kVCU25mm2 length=0.043265 units=km normamps=188 
New "Line.3747428" phases=3 bus1=3806226_p.1.2.3 bus2=3747428_p.1.2.3 linecode=10kVCU16mm2 length=0.054575 units=km normamps=141 
New "Line.3747826" phases=3 bus1=3808162_p.1.2.3 bus2=3747826_p.1.2.3 linecode=10kVCU35mm2 length=0.0286 units=km normamps=229 
New "Line.3747858" phases=3 bus1=3812641_p.1.2.3 bus2=3747858_p.1.2.3 linecode=10kVCU25mm2 length=0.108521 units=km normamps=188 
New "Line.3747979" phases=3 bus1=2915605_p.1.2.3 bus2=3747979_p.1.2.3 linecode=10kVAAAC120mm2 length=0.004686 units=km normamps=340 
New "Line.3747990" phases=3 bus1=3813327_p.1.2.3 bus2=3747990_p.1.2.3 linecode=10kVCU25mm2 length=0.068281 units=km normamps=188 
New "Line.3747991" phases=3 bus1=3747990_p.1.2.3 bus2=3747991_p.1.2.3 linecode=10kVCU25mm2 length=0.066753 units=km normamps=188 
New "Line.3747992" phases=3 bus1=3747991_p.1.2.3 bus2=3747992_p.1.2.3 linecode=10kVCU25mm2 length=0.008627 units=km normamps=188 
New "Line.3747993" phases=3 bus1=3747992_p.1.2.3 bus2=3747993_p.1.2.3 linecode=10kVCU25mm2 length=0.013468 units=km normamps=188 
New "Line.3748213" phases=3 bus1=3813106_p.1.2.3 bus2=3748213_p.1.2.3 linecode=10kVCU35mm2 length=0.051122 units=km normamps=229 
New "Line.3748216" phases=3 bus1=3748213_p.1.2.3 bus2=3748216_p.1.2.3 linecode=10kVAAAC35mm2 length=0.048331 units=km normamps=160 
New "Line.3748257" phases=3 bus1=3747992_p.1.2.3 bus2=3748257_p.1.2.3 linecode=10kVCU25mm2 length=0.050337 units=km normamps=188 
New "Line.3748258" phases=3 bus1=3810156_p.1.2.3 bus2=3748258_p.1.2.3 linecode=10kVCU25mm2 length=0.02997 units=km normamps=188 
New "Line.3748380" phases=3 bus1=3838094_p.1.2.3 bus2=3748380_p.1.2.3 linecode=10kVCU50mm2 length=0.054824 units=km normamps=277 
New "Line.3748429" phases=3 bus1=3806170_p.1.2.3 bus2=3748429_p.1.2.3 linecode=10kVAAAC35mm2 length=0.202643 units=km normamps=160 
New "Line.3748430" phases=3 bus1=3805164_p.1.2.3 bus2=3748430_p.1.2.3 linecode=10kVAAAC50mm2 length=0.063995 units=km normamps=195 
New "Line.3748431" phases=3 bus1=3748430_p.1.2.3 bus2=3748431_p.1.2.3 linecode=10kVAAAC50mm2 length=0.084088 units=km normamps=195 
New "Line.3748432" phases=3 bus1=3748431_p.1.2.3 bus2=3748432_p.1.2.3 linecode=10kVAAAC50mm2 length=0.083983 units=km normamps=195 
New "Line.3805083" phases=3 bus1=14070073_p.1.2.3 bus2=3805083_p.1.2.3 linecode=10kVCU25mm2 length=0.06474 units=km normamps=188 
New "Line.3805128" phases=3 bus1=3748432_p.1.2.3 bus2=3805128_p.1.2.3 linecode=10kVAAAC50mm2 length=0.11725 units=km normamps=195 
New "Line.3805129" phases=3 bus1=3812694_p.1.2.3 bus2=3805129_p.1.2.3 linecode=10kVAAAC50mm2 length=0.079656 units=km normamps=195 
New "Line.3805164" phases=3 bus1=3812380_p.1.2.3 bus2=3805164_p.1.2.3 linecode=10kVAAAC50mm2 length=0.076052 units=km normamps=195 
New "Line.3805213" phases=3 bus1=3810847_p.1.2.3 bus2=3805213_p.1.2.3 linecode=10kVAAAC25mm2 length=0.023098 units=km normamps=125 
New "Line.3805214" phases=3 bus1=3805213_p.1.2.3 bus2=3805214_p.1.2.3 linecode=10kVAAAC25mm2 length=0.081904 units=km normamps=125 
New "Line.3805215" phases=3 bus1=3805214_p.1.2.3 bus2=3805215_p.1.2.3 linecode=10kVAAAC25mm2 length=0.080299 units=km normamps=125 
New "Line.3805216" phases=3 bus1=3805215_p.1.2.3 bus2=3805216_p.1.2.3 linecode=10kVAAAC25mm2 length=0.078346 units=km normamps=125 
New "Line.3805217" phases=3 bus1=3805216_p.1.2.3 bus2=3805217_p.1.2.3 linecode=10kVAAAC25mm2 length=0.021639 units=km normamps=125 
New "Line.3805218" phases=3 bus1=3805217_p.1.2.3 bus2=3805218_p.1.2.3 linecode=10kVAAAC25mm2 length=0.031917 units=km normamps=125 
New "Line.3805219" phases=3 bus1=3805218_p.1.2.3 bus2=3805219_p.1.2.3 linecode=10kVAAAC25mm2 length=0.007559 units=km normamps=125 
New "Line.3805220" phases=3 bus1=3805218_p.1.2.3 bus2=3805220_p.1.2.3 linecode=10kVAAAC25mm2 length=0.010543 units=km normamps=125 
New "Line.3805221" phases=3 bus1=3805220_p.1.2.3 bus2=3805221_p.1.2.3 linecode=10kVAAAC25mm2 length=0.064975 units=km normamps=125 
New "Line.3805222" phases=3 bus1=3805221_p.1.2.3 bus2=3805222_p.1.2.3 linecode=10kVAAAC25mm2 length=0.064477 units=km normamps=125 
New "Line.3805223" phases=3 bus1=3805222_p.1.2.3 bus2=3805223_p.1.2.3 linecode=10kVAAAC25mm2 length=0.084051 units=km normamps=125 
New "Line.3805224" phases=3 bus1=3805223_p.1.2.3 bus2=3805224_p.1.2.3 linecode=10kVAAAC25mm2 length=0.110658 units=km normamps=125 
New "Line.3805225" phases=3 bus1=3805224_p.1.2.3 bus2=3805225_p.1.2.3 linecode=10kVAAAC25mm2 length=0.078 units=km normamps=125 
New "Line.3805226" phases=3 bus1=3805225_p.1.2.3 bus2=3805226_p.1.2.3 linecode=10kVAAAC25mm2 length=0.03768 units=km normamps=125 
New "Line.3805256" phases=3 bus1=3806456_p.1.2.3 bus2=3805256_p.1.2.3 linecode=10kVN2XSY70mm2 length=0.018118 units=km normamps=348 
New "Line.3806170" phases=3 bus1=3747361_p.1.2.3 bus2=3806170_p.1.2.3 linecode=10kVAAAC120mm2 length=0.054247 units=km normamps=340 
New "Line.3806218" phases=3 bus1=3806233_p.1.2.3 bus2=3806218_p.1.2.3 linecode=10kVCU16mm2 length=0.053166 units=km normamps=141 
New "Line.3806219" phases=3 bus1=3806233_p.1.2.3 bus2=3806219_p.1.2.3 linecode=10kVCU16mm2 length=0.071202 units=km normamps=141 
New "Line.3806220" phases=3 bus1=3806219_p.1.2.3 bus2=3806220_p.1.2.3 linecode=10kVCU16mm2 length=0.063025 units=km normamps=141 
New "Line.3806221" phases=3 bus1=3806220_p.1.2.3 bus2=3806221_p.1.2.3 linecode=10kVCU16mm2 length=0.074858 units=km normamps=141 
New "Line.3806222" phases=3 bus1=3806221_p.1.2.3 bus2=3806222_p.1.2.3 linecode=10kVCU16mm2 length=0.048031 units=km normamps=141 
New "Line.3806224" phases=3 bus1=3806249_p.1.2.3 bus2=3806224_p.1.2.3 linecode=10kVCU16mm2 length=0.07515 units=km normamps=141 
New "Line.3806225" phases=3 bus1=3806224_p.1.2.3 bus2=3806225_p.1.2.3 linecode=10kVCU16mm2 length=0.086736 units=km normamps=141 
New "Line.3806226" phases=3 bus1=3806225_p.1.2.3 bus2=3806226_p.1.2.3 linecode=10kVCU16mm2 length=0.053422 units=km normamps=141 
New "Line.3806227" phases=3 bus1=3808079_p.1.2.3 bus2=3806227_p.1.2.3 linecode=10kVN2XSY16mm2 length=0.010952 units=km normamps=141 
New "Line.3806233" phases=3 bus1=3806247_p.1.2.3 bus2=3806233_p.1.2.3 linecode=10kVCU16mm2 length=0.083051 units=km normamps=141 
New "Line.3806238" phases=3 bus1=3806268_p.1.2.3 bus2=3806238_p.1.2.3 linecode=10kVCU50mm2 length=0.075899 units=km normamps=277 
New "Line.3806239" phases=3 bus1=3824294_p.1.2.3 bus2=3806239_p.1.2.3 linecode=10kVCU25mm2 length=0.089695 units=km normamps=188 
New "Line.3806241" phases=3 bus1=3819062_p.1.2.3 bus2=3806241_p.1.2.3 linecode=10kVCU25mm2 length=0.022514 units=km normamps=188 
New "Line.3806243" phases=3 bus1=3812870_p.1.2.3 bus2=3806243_p.1.2.3 linecode=10kVCU16mm2 length=0.065127 units=km normamps=141 
New "Line.3806244" phases=3 bus1=3806243_p.1.2.3 bus2=3806244_p.1.2.3 linecode=10kVCU16mm2 length=0.049764 units=km normamps=141 
New "Line.3806247" phases=3 bus1=3806244_p.1.2.3 bus2=3806247_p.1.2.3 linecode=10kVCU16mm2 length=0.087363 units=km normamps=141 
New "Line.3806249" phases=3 bus1=3806218_p.1.2.3 bus2=3806249_p.1.2.3 linecode=10kVCU16mm2 length=0.061487 units=km normamps=141 
New "Line.3806256" phases=3 bus1=3806346_p.1.2.3 bus2=3806256_p.1.2.3 linecode=10kVCU16mm2 length=0.103898 units=km normamps=141 
New "Line.3806259" phases=3 bus1=3813147_p.1.2.3 bus2=3806259_p.1.2.3 linecode=10kVCU25mm2 length=0.020403 units=km normamps=188 
New "Line.3806267" phases=3 bus1=3806318_p.1.2.3 bus2=3806267_p.1.2.3 linecode=10kVCU50mm2 length=0.076435 units=km normamps=277 
New "Line.3806268" phases=3 bus1=3806267_p.1.2.3 bus2=3806268_p.1.2.3 linecode=10kVCU50mm2 length=0.070609 units=km normamps=277 
New "Line.3806317" phases=3 bus1=3812368_p.1.2.3 bus2=3806317_p.1.2.3 linecode=10kVCU16mm2 length=0.064607 units=km normamps=141 
New "Line.3806318" phases=3 bus1=3812644_p.1.2.3 bus2=3806318_p.1.2.3 linecode=10kVCU50mm2 length=0.024883 units=km normamps=277 
New "Line.3806319" phases=3 bus1=3812631_p.1.2.3 bus2=3806319_p.1.2.3 linecode=10kVCU70mm2 length=0.040803 units=km normamps=348 
New "Line.3806321" phases=3 bus1=3806319_p.1.2.3 bus2=3806321_p.1.2.3 linecode=10kVCU70mm2 length=0.035301 units=km normamps=348 
New "Line.3806322" phases=3 bus1=3806321_p.1.2.3 bus2=3806322_p.1.2.3 linecode=10kVCU70mm2 length=0.04267 units=km normamps=348 
New "Line.3806333" phases=3 bus1=3823263_p.1.2.3 bus2=3806333_p.1.2.3 linecode=10kVCU70mm2 length=0.062447 units=km normamps=348 
New "Line.3806336" phases=3 bus1=3806358_p.1.2.3 bus2=3806336_p.1.2.3 linecode=10kVCU16mm2 length=0.073318 units=km normamps=141 
New "Line.3806344" phases=3 bus1=3806336_p.1.2.3 bus2=3806344_p.1.2.3 linecode=10kVCU16mm2 length=0.056841 units=km normamps=141 
New "Line.3806345" phases=3 bus1=3806344_p.1.2.3 bus2=3806345_p.1.2.3 linecode=10kVCU16mm2 length=0.091556 units=km normamps=141 
New "Line.3806346" phases=3 bus1=3812623_p.1.2.3 bus2=3806346_p.1.2.3 linecode=10kVCU16mm2 length=0.052405 units=km normamps=141 
New "Line.3806347" phases=3 bus1=3806256_p.1.2.3 bus2=3806347_p.1.2.3 linecode=10kVCU35mm2 length=0.010981 units=km normamps=229 
New "Line.3806348" phases=3 bus1=3806347_p.1.2.3 bus2=3806348_p.1.2.3 linecode=10kVCU35mm2 length=0.008183 units=km normamps=229 
New "Line.3806349" phases=3 bus1=3806348_p.1.2.3 bus2=3806349_p.1.2.3 linecode=10kVCU16mm2 length=0.042908 units=km normamps=141 
New "Line.3806350" phases=3 bus1=3806349_p.1.2.3 bus2=3806350_p.1.2.3 linecode=10kVCU16mm2 length=0.038714 units=km normamps=141 
New "Line.3806351" phases=3 bus1=3806350_p.1.2.3 bus2=3806351_p.1.2.3 linecode=10kVCU16mm2 length=0.018923 units=km normamps=141 
New "Line.3806352" phases=3 bus1=3806351_p.1.2.3 bus2=3806352_p.1.2.3 linecode=10kVCU16mm2 length=0.089874 units=km normamps=141 
New "Line.3806357" phases=3 bus1=3806378_p.1.2.3 bus2=3806357_p.1.2.3 linecode=10kVCU50mm2 length=0.035746 units=km normamps=277 
New "Line.3806358" phases=3 bus1=3812921_p.1.2.3 bus2=3806358_p.1.2.3 linecode=10kVCU16mm2 length=0.049076 units=km normamps=141 
New "Line.3806372" phases=3 bus1=3806717_p.1.2.3 bus2=3806372_p.1.2.3 linecode=10kVAAAC70mm2 length=0.099089 units=km normamps=235 
New "Line.3806373" phases=3 bus1=3806372_p.1.2.3 bus2=3806373_p.1.2.3 linecode=10kVAAAC70mm2 length=0.103018 units=km normamps=235 
New "Line.3806374" phases=3 bus1=3806373_p.1.2.3 bus2=3806374_p.1.2.3 linecode=10kVCU16mm2 length=0.000593 units=km normamps=141 
...
